envs/dss_8500/Master.dss
// Master file for 8500-Node IEEE Test Feeder Case
// Balanced Load Case

Clear
Set DefaultBaseFrequency=60

New Circuit.IEEE8500  

! Make the source stiff with small impedance
~ pu=1.05  r1=0  x1=0.001  r0=0  x0=0.001  

Redirect  LineCodes2.DSS
Redirect  Triplex_Linecodes.dss

Redirect  Lines.dss
Redirect  Transformers.dss
//Redirect  LoadXfmrs.dss    ! Load Transformers
Redirect  LoadXfmrCodes.dss  ! Referencing XfmrCodes
Redirect  Triplex_Lines.DSS
Redirect  Loads.dss     ! Balanced Loads
Redirect  Capacitors.dss
Redirect  CapControls.DSS
Redirect  Regulators.dss

! Let DSS estimate the voltage bases
Set voltagebases=[115, 12.47,  0.48, 0.208]
Calcvoltagebases     ! This also establishes the bus list

! Load in bus coordintes now that bus list is established
Buscoords  Buscoords.dss

! this is important (https://sourceforge.net/p/electricdss/discussion/861976/thread/041a29c9/#7b4b)
Set MaxIterations=40  ! the default is 15
Set MaxControlIter=20  ! the default is 10
